*SPEF "1481-1998"
*DESIGN "pit_top"
*DATE "Tue Nov 21 15:59:52 2023"
*VENDOR "Synopsys, Inc."
*PROGRAM "icc2 /home/synopsys/icc2/O-2018.06-SP1/linux64/nwtn/bin/icc2_exec"
*VERSION "O-2018.06-SP1 Jul 17, 2018"
*DESIGN_FLOW "ICC2 SPEF DR"
*DIVIDER /
*DELIMITER :
*T_UNIT 1 NS
*C_UNIT 1 FF
*R_UNIT 1 OHM
*L_UNIT 1 HENRY

// XY_UNIT 1 UM
// PARASITIC_TECH tlup_min at -40.000 degree

*NAME_MAP
*1 wb_dat_o[15]
*2 wb_dat_o[14]
*3 wb_dat_o[13]
*4 wb_dat_o[12]
*5 wb_dat_o[11]
*6 wb_dat_o[10]
*7 wb_dat_o[9]
*8 wb_dat_o[8]
*9 wb_dat_o[7]
*10 wb_dat_o[6]
*11 wb_dat_o[5]
*12 wb_dat_o[4]
*13 wb_dat_o[3]
*14 wb_dat_o[2]
*15 wb_dat_o[1]
*16 wb_dat_o[0]
*17 wb_ack_o
*18 wb_clk_i
*19 wb_rst_i
*20 arst_i
*21 wb_adr_i[2]
*22 wb_adr_i[1]
*23 wb_adr_i[0]
*24 wb_dat_i[15]
*25 wb_dat_i[14]
*26 wb_dat_i[13]
*27 wb_dat_i[12]
*28 wb_dat_i[11]
*29 wb_dat_i[10]
*30 wb_dat_i[9]
*31 wb_dat_i[8]
*32 wb_dat_i[7]
*33 wb_dat_i[6]
*34 wb_dat_i[5]
*35 wb_dat_i[4]
*36 wb_dat_i[3]
*37 wb_dat_i[2]
*38 wb_dat_i[1]
*39 wb_dat_i[0]
*40 wb_we_i
*41 wb_stb_i
*42 wb_cyc_i
*43 wb_sel_i[1]
*44 wb_sel_i[0]
*45 pit_o
*46 pit_irq_o
*47 cnt_flag_o
*48 cnt_sync_o
*49 ext_sync_i
*50 VDD
*51 VSS
*52 wishbone/addr_latch_reg[0]
*53 wishbone/addr_latch_reg[1]
*54 wishbone/addr_latch_reg[2]
*55 wishbone/bus_wait_state_reg
*56 regs/pit_flg_clr_reg
*57 regs/pit_ien_reg
*58 regs/mod_value_reg[0]
*59 regs/mod_value_reg[2]
*60 regs/mod_value_reg[3]
*61 regs/mod_value_reg[4]
*62 regs/mod_value_reg[5]
*63 regs/mod_value_reg[6]
*64 regs/mod_value_reg[7]
*65 regs/mod_value_reg[8]
*66 regs/mod_value_reg[9]
*67 regs/mod_value_reg[10]
*68 regs/mod_value_reg[11]
*69 regs/mod_value_reg[12]
*70 regs/mod_value_reg[13]
*71 regs/mod_value_reg[14]
*72 regs/mod_value_reg[15]
*73 prescale/cnt_n_reg[2]
*74 prescale/cnt_n_reg[3]
*75 prescale/cnt_n_reg[5]
*76 prescale/cnt_n_reg[6]
*77 prescale/cnt_n_reg[7]
*78 prescale/cnt_n_reg[9]
*79 prescale/cnt_n_reg[10]
*80 prescale/cnt_n_reg[11]
*81 prescale/cnt_n_reg[12]
*82 prescale/cnt_n_reg[13]
*83 prescale/cnt_n_reg[14]
*84 counter/cnt_n_reg[11]
*85 counter/cnt_n_reg[10]
*86 counter/cnt_n_reg[8]
*87 counter/cnt_n_reg[2]
*88 counter/cnt_n_reg[1]
*89 counter/cnt_n_reg[0]
*90 counter/cnt_flag_o_reg
*91 regs/cnt_sync_o_reg
*92 regs/pit_pre_reg[3]
*93 regs/pit_irq_o_reg
*94 counter/cnt_n_reg[9]
*95 counter/pit_o_reg
*96 counter/cnt_n_reg[15]
*97 counter/cnt_n_reg[14]
*98 counter/cnt_n_reg[13]
*99 counter/cnt_n_reg[12]
*100 regs/pit_pre_reg[0]
*101 counter/cnt_n_reg[3]
*102 regs/mod_value_reg[1]
*103 prescale/cnt_n_reg[1]
*104 prescale/cnt_n_reg[8]
*105 regs/pit_slave_reg
*106 regs/pit_pre_reg[1]
*107 prescale/cnt_n_reg[4]
*108 prescale/cnt_n_reg[0]
*109 regs/pit_pre_reg[2]
*110 counter/cnt_n_reg[4]
*111 counter/cnt_n_reg[6]
*112 counter/cnt_n_reg[7]
*113 counter/cnt_n_reg[5]
*114 U171
*115 U172
*116 U173
*117 U174
*118 U175
*119 HFSINV_5_8
*120 U177
*121 copt_d_inst_1183
*122 U179
*123 U180
*124 U181
*125 U182
*126 U183
*127 U184
*128 U185
*129 U186
*130 U187
*131 U188
*132 U189
*133 U190
*134 U191
*135 U192
*136 U193
*137 U194
*138 U195
*139 U196
*140 U197
*141 U198
*142 U199
*143 U200
*144 U201
*145 U202
*146 U203
*147 U204
*148 U205
*149 U206
*150 U207
*151 U208
*152 U209
*153 U210
*154 U211
*155 U212
*156 U213
*157 U214
*158 U215
*159 U216
*160 U217
*161 U218
*162 U219
*163 U220
*164 U221
*165 U222
*166 U223
*167 U224
*168 U225
*169 wishbone/clk_gate_addr_latch_reg/cto_buf_628
*170 U227
*171 U228
*172 U229
*173 copt_d_inst_1194
*174 U231
*175 U232
*176 U233
*177 U234
*178 U235
*179 U236
*180 U237
*181 U238
*182 U239
*183 HFSINV_249_39
*184 U241
*185 copt_h_inst_668
*186 U243
*187 U244
*188 U245
*189 U246
*190 U247
*191 U248
*192 U249
*193 U250
*194 U251
*195 U252
*196 U253
*197 U254
*198 U255
*199 U256
*200 U257
*201 U258
*202 U259
*203 U260
*204 U261
*205 U262
*206 U263
*207 U264
*208 U265
*209 U266
*210 U267
*211 U268
*212 U269
*213 U270
*214 U271
*215 U272
*216 U273
*217 U274
*218 U275
*219 U276
*220 U277
*221 U278
*222 U279
*223 U280
*224 U281
*225 U282
*226 U283
*227 U284
*228 U285
*229 U286
*230 U287
*231 U288
*232 U289
*233 U290
*234 U291
*235 U292
*236 U293
*237 U294
*238 U295
*239 U296
*240 U297
*241 U298
*242 U299
*243 U300
*244 U301
*245 U302
*246 U303
*247 U304
*248 U305
*249 U306
*250 U307
*251 U308
*252 U309
*253 U310
*254 U311
*255 U312
*256 U313
*257 U314
*258 U315
*259 U316
*260 U317
*261 U318
*262 U319
*263 U320
*264 U321
*265 U322
*266 U323
*267 U324
*268 U325
*269 copt_d_inst_1189
*270 U327
*271 U328
*272 U329
*273 U330
*274 U331
*275 U332
*276 U333
*277 U334
*278 U335
*279 U336
*280 U337
*281 U338
*282 U339
*283 U340
*284 U341
*285 U342
*286 U343
*287 U344
*288 U345
*289 U346
*290 U347
*291 U348
*292 U349
*293 U350
*294 U351
*295 U352
*296 U353
*297 U354
*298 U355
*299 U356
*300 U357
*301 U358
*302 U359
*303 U360
*304 U361
*305 U362
*306 U363
*307 U364
*308 U365
*309 U366
*310 U367
*311 U368
*312 U369
*313 U370
*314 U371
*315 U372
*316 U373
*317 U374
*318 copt_d_inst_660
*319 U376
*320 U377
*321 U378
*322 U379
*323 U380
*324 U381
*325 U382
*326 U383
*327 U384
*328 U385
*329 U386
*330 U387
*331 U388
*332 U389
*333 U390
*334 U391
*335 U392
*336 U393
*337 U394
*338 U395
*339 U396
*340 U397
*341 wishbone/clk_gate_addr_latch_reg/latch
*342 regs/clk_gate_pit_slave_reg/latch
*343 regs/clk_gate_mod_value_reg/latch
*344 counter/clk_gate_cnt_n_reg/latch
*345 cts_inv_366408
*346 copt_d_inst_1190
*347 ZBUF_inst_42
*348 HFSBUF_1615_f_5
*349 HFSINV_1891_6
*350 cts_inv_371413
*351 cts_inv_376418
*352 cts_inv_381423
*353 regs/clk_gate_pit_slave_reg/cto_buf_629
*354 copt_d_inst_1191
*355 copt_d_inst_1192
*356 copt_d_inst_649
*357 copt_d_inst_650
*358 copt_d_inst_1193
*359 copt_d_inst_1172
*360 copt_d_inst_653
*361 copt_d_inst_1175
*362 copt_d_inst_657
*363 copt_d_inst_658
*364 copt_d_inst_659
*365 copt_h_inst_674
*366 copt_d_inst_662
*367 copt_d_inst_1195
*368 copt_d_inst_664
*369 copt_d_inst_665
*370 copt_d_inst_1185
*371 copt_d_inst_667
*372 copt_h_inst_675
*373 copt_d_inst_1174
*374 copt_h_inst_677
*375 copt_h_inst_678
*376 copt_h_inst_679
*377 copt_d_inst_1196
*378 copt_h_inst_681
*379 copt_h_inst_682
*380 copt_h_inst_683
*381 copt_d_inst_1186
*382 copt_h_inst_685
*383 copt_h_inst_686
*384 copt_h_inst_687
*385 copt_h_inst_688
*386 copt_h_inst_689
*387 copt_h_inst_690
*388 copt_d_inst_1182
*389 copt_d_inst_1184
*390 copt_h_inst_693
*391 copt_h_inst_694
*392 copt_h_inst_695
*393 copt_h_inst_696
*394 copt_h_inst_697
*395 copt_h_inst_698
*396 copt_h_inst_699
*397 copt_d_inst_1176
*398 copt_d_inst_1168
*399 copt_h_inst_702
*400 copt_h_inst_703
*401 copt_h_inst_704
*402 copt_h_inst_705
*403 copt_h_inst_706
*404 copt_h_inst_707
*405 copt_h_inst_708
*406 copt_h_inst_709
*407 copt_h_inst_710
*408 copt_h_inst_711
*409 copt_h_inst_712
*410 copt_h_inst_713
*411 copt_h_inst_714
*412 copt_h_inst_715
*413 copt_h_inst_716
*414 copt_h_inst_717
*415 copt_h_inst_718
*416 ZBUF_inst_1197
*417 copt_h_inst_720
*418 copt_h_inst_721
*419 copt_h_inst_722
*420 ZBUF_inst_1198
*421 copt_h_inst_724
*422 copt_h_inst_725
*423 copt_h_inst_726
*424 copt_d_inst_1187
*425 copt_h_inst_728
*426 copt_h_inst_729
*427 copt_h_inst_730
*428 ZBUF_inst_1199
*429 copt_d_inst_1170
*430 copt_d_inst_1171
*431 copt_d_inst_1177
*432 copt_h_inst_735
*433 copt_h_inst_736
*434 copt_h_inst_737
*435 copt_h_inst_738
*436 copt_h_inst_739
*437 copt_h_inst_740
*438 copt_d_inst_1178
*439 copt_d_inst_1179
*440 copt_h_inst_743
*441 copt_h_inst_744
*442 copt_h_inst_745
*443 copt_h_inst_746
*444 copt_d_inst_1180
*445 copt_d_inst_1188
*446 copt_h_inst_749
*447 ZBUF_inst_1200
*448 ZBUF_inst_1201
*449 ZBUF_inst_1202
*450 ZBUF_inst_1203
*451 U_PTECO_HOLD_BUF2
*452 copt_h_inst_755
*453 copt_h_inst_756
*454 copt_h_inst_757
*455 copt_h_inst_758
*456 copt_h_inst_759
*457 U_PTECO_HOLD_BUF1
*458 U_PTECO_HOLD_BUF2_0
*459 copt_h_inst_762
*460 copt_h_inst_763
*461 U_PTECO_HOLD_BUF1_1
*462 copt_h_inst_765
*463 copt_h_inst_766
*464 copt_h_inst_770
*465 copt_h_inst_771
*466 copt_h_inst_773
*467 copt_h_inst_774
*468 copt_h_inst_775
*469 copt_h_inst_776
*470 copt_h_inst_777
*471 copt_h_inst_778
*472 copt_h_inst_779
*473 copt_h_inst_780
*474 copt_h_inst_781
*475 copt_h_inst_783
*476 copt_d_inst_1169
*477 copt_h_inst_785
*478 copt_h_inst_786
*479 copt_h_inst_788
*480 copt_h_inst_789
*481 copt_h_inst_791
*482 copt_h_inst_794
*483 copt_h_inst_795
*484 copt_h_inst_798
*485 copt_h_inst_799
*486 copt_h_inst_800
*487 copt_h_inst_801
*488 copt_h_inst_802
*489 copt_h_inst_803
*490 copt_h_inst_804
*491 copt_h_inst_806
*492 copt_h_inst_807
*493 copt_h_inst_808
*494 copt_h_inst_809
*495 copt_h_inst_811
*496 copt_h_inst_812
*497 copt_h_inst_813
*498 copt_h_inst_814
*499 copt_h_inst_815
*500 copt_h_inst_817
*501 copt_h_inst_818
*502 copt_h_inst_819
*503 copt_h_inst_821
*504 copt_h_inst_823
*505 copt_h_inst_824
*506 copt_h_inst_825
*507 copt_h_inst_826
*508 copt_h_inst_827
*509 copt_h_inst_828
*510 copt_h_inst_829
*511 copt_h_inst_830
*512 copt_h_inst_831
*513 copt_h_inst_832
*514 copt_h_inst_833
*515 copt_h_inst_834
*516 copt_h_inst_835
*517 copt_h_inst_836
*518 copt_h_inst_837
*519 copt_h_inst_838
*520 copt_h_inst_839
*521 copt_h_inst_840
*522 copt_h_inst_841
*523 copt_h_inst_843
*524 copt_h_inst_844
*525 copt_h_inst_845
*526 copt_h_inst_846
*527 copt_h_inst_847
*528 copt_h_inst_848
*529 copt_h_inst_849
*530 copt_h_inst_850
*531 copt_h_inst_851
*532 copt_h_inst_852
*533 copt_h_inst_853
*534 copt_h_inst_854
*535 copt_h_inst_855
*536 copt_h_inst_856
*537 copt_h_inst_857
*538 copt_h_inst_858
*539 copt_h_inst_859
*540 copt_h_inst_860
*541 copt_h_inst_861
*542 copt_h_inst_862
*543 copt_h_inst_863
*544 copt_h_inst_864
*545 copt_h_inst_865
*546 copt_h_inst_866
*547 copt_h_inst_867
*548 copt_h_inst_868
*549 copt_h_inst_869
*550 copt_h_inst_870
*551 copt_h_inst_871
*552 copt_h_inst_872
*553 copt_h_inst_873
*554 copt_h_inst_874
*555 copt_h_inst_875
*556 copt_h_inst_876
*557 copt_h_inst_877
*558 copt_h_inst_878
*559 copt_h_inst_879
*560 copt_h_inst_880
*561 copt_h_inst_881
*562 copt_h_inst_884
*563 copt_h_inst_885
*564 copt_h_inst_887
*565 copt_h_inst_888
*566 copt_h_inst_889
*567 copt_h_inst_890
*568 copt_h_inst_894
*569 copt_h_inst_895
*570 copt_h_inst_896
*571 copt_h_inst_897
*572 copt_h_inst_898
*573 copt_h_inst_899
*574 copt_h_inst_900
*575 copt_h_inst_901
*576 copt_h_inst_902
*577 copt_h_inst_903
*578 copt_h_inst_904
*579 copt_h_inst_905
*580 copt_h_inst_906
*581 copt_h_inst_907
*582 copt_h_inst_908
*583 copt_h_inst_909
*584 copt_h_inst_910
*585 copt_h_inst_911
*586 copt_h_inst_912
*587 copt_h_inst_913
*588 copt_h_inst_914
*589 copt_h_inst_915
*590 copt_h_inst_916
*591 copt_h_inst_917
*592 copt_h_inst_918
*593 copt_h_inst_919
*594 copt_h_inst_920
*595 copt_h_inst_921
*596 copt_h_inst_922
*597 copt_h_inst_923
*598 copt_h_inst_924
*599 copt_h_inst_925
*600 copt_h_inst_926
*601 copt_h_inst_927
*602 copt_h_inst_928
*603 copt_h_inst_929
*604 copt_h_inst_930
*605 copt_h_inst_931
*606 copt_h_inst_932
*607 copt_h_inst_933
*608 copt_h_inst_934
*609 copt_h_inst_935
*610 copt_h_inst_936
*611 copt_h_inst_937
*612 copt_h_inst_938
*613 copt_h_inst_939
*614 copt_h_inst_940
*615 copt_h_inst_941
*616 copt_h_inst_942
*617 copt_h_inst_943
*618 copt_h_inst_944
*619 copt_h_inst_945
*620 copt_h_inst_946
*621 copt_h_inst_947
*622 copt_h_inst_948
*623 copt_h_inst_949
*624 copt_h_inst_950
*625 copt_h_inst_951
*626 copt_h_inst_953
*627 copt_h_inst_954
*628 copt_h_inst_955
*629 copt_h_inst_956
*630 copt_h_inst_957
*631 copt_h_inst_958
*632 copt_h_inst_959
*633 copt_h_inst_961
*634 copt_h_inst_962
*635 copt_h_inst_963
*636 copt_h_inst_964
*637 copt_h_inst_965
*638 copt_h_inst_966
*639 copt_h_inst_967
*640 copt_h_inst_969
*641 copt_h_inst_971
*642 copt_h_inst_972
*643 copt_h_inst_973
*644 copt_h_inst_974
*645 copt_h_inst_975
*646 copt_h_inst_976
*647 copt_h_inst_977
*648 copt_h_inst_979
*649 copt_h_inst_980
*650 copt_h_inst_981
*651 copt_h_inst_982
*652 copt_h_inst_983
*653 copt_h_inst_984
*654 copt_h_inst_985
*655 copt_h_inst_986
*656 copt_h_inst_987
*657 copt_h_inst_989
*658 copt_h_inst_990
*659 copt_h_inst_994
*660 copt_h_inst_995
*661 copt_h_inst_996
*662 copt_h_inst_997
*663 copt_h_inst_999
*664 copt_h_inst_1009
*665 copt_h_inst_1011
*666 copt_h_inst_1012
*667 copt_h_inst_1013
*668 copt_h_inst_1014
*669 copt_h_inst_1015
*670 copt_h_inst_1016
*671 copt_h_inst_1017
*672 copt_h_inst_1018
*673 copt_h_inst_1019
*674 copt_h_inst_1020
*675 copt_h_inst_1021
*676 copt_h_inst_1022
*677 copt_h_inst_1023
*678 copt_h_inst_1024
*679 copt_h_inst_1025
*680 copt_h_inst_1026
*681 copt_h_inst_1027
*682 copt_h_inst_1028
*683 copt_h_inst_1029
*684 copt_h_inst_1030
*685 copt_h_inst_1031
*686 copt_h_inst_1032
*687 copt_h_inst_1033
*688 copt_h_inst_1034
*689 copt_h_inst_1035
*690 copt_h_inst_1036
*691 copt_h_inst_1037
*692 copt_h_inst_1038
*693 copt_h_inst_1039
*694 copt_h_inst_1040
*695 copt_h_inst_1041
*696 copt_h_inst_1042
*697 copt_h_inst_1043
*698 copt_h_inst_1044
*699 copt_h_inst_1047
*700 copt_h_inst_1049
*701 copt_h_inst_1050
*702 copt_h_inst_1051
*703 copt_h_inst_1052
*704 copt_h_inst_1053
*705 copt_h_inst_1054
*706 copt_h_inst_1055
*707 copt_h_inst_1056
*708 copt_h_inst_1057
*709 copt_h_inst_1058
*710 copt_h_inst_1059
*711 copt_h_inst_1063
*712 copt_h_inst_1069
*713 copt_h_inst_1071
*714 copt_h_inst_1072
*715 copt_h_inst_1076
*716 copt_h_inst_1077
*717 copt_h_inst_1078
*718 copt_h_inst_1079
*719 copt_h_inst_1080
*720 copt_h_inst_1083
*721 copt_h_inst_1084
*722 copt_h_inst_1085
*723 copt_h_inst_1086
*724 copt_h_inst_1094
*725 copt_h_inst_1095
*726 copt_h_inst_1097
*727 copt_h_inst_1098
*728 copt_h_inst_1103
*729 copt_h_inst_1104
*730 copt_h_inst_1105
*731 copt_h_inst_1106
*732 copt_h_inst_1107
*733 copt_h_inst_1108
*734 copt_h_inst_1109
*735 copt_h_inst_1114
*736 copt_h_inst_1115
*737 copt_h_inst_1116
*738 copt_h_inst_1117
*739 copt_h_inst_1119
*740 copt_h_inst_1127
*741 copt_h_inst_1129
*742 copt_h_inst_1130
*743 copt_h_inst_1131
*744 copt_h_inst_1132
*745 copt_h_inst_1133
*746 copt_h_inst_1135
*747 copt_h_inst_1136
*748 copt_h_inst_1137
*749 copt_h_inst_1140
*750 copt_h_inst_1141
*751 copt_h_inst_1142
*752 copt_h_inst_1143
*753 copt_h_inst_1144
*754 copt_h_inst_1149
*755 copt_h_inst_1150
*756 copt_h_inst_1151
*757 copt_h_inst_1154
*758 copt_h_inst_1155
*759 copt_h_inst_1156
*760 copt_h_inst_1157
*761 copt_h_inst_1158
*762 copt_h_inst_1159
*763 copt_h_inst_1160
*764 copt_h_inst_1161
*765 copt_h_inst_1162
*766 copt_h_inst_1164
*767 copt_h_inst_1165
*768 copt_h_inst_1166
*769 copt_h_inst_1167
*770 ctsbuf_net_10
*771 aps_rename_1_
*772 pit_slave
*773 pit_ien
*774 pit_flg_clr
*775 wishbone/net2006
*776 wishbone/N26
*777 wishbone/bus_wait_state
*778 wishbone/module_sel
*779 regs/net1989
*780 regs/net1978
*781 regs/N80
*782 regs/N79
*783 regs/N78
*784 regs/N77
*785 regs/N76
*786 regs/N75
*787 regs/N72
*788 regs/N62
*789 prescale/N60
*790 prescale/N56
*791 prescale/N55
*792 counter/net1960
*793 counter/N50
*794 counter/N41
*795 counter/N40
*796 counter/N39
*797 counter/N38
*798 counter/N37
*799 counter/N36
*800 counter/N35
*801 counter/N34
*802 counter/N33
*803 counter/N32
*804 counter/N31
*805 counter/N30
*806 counter/N29
*807 counter/N28
*808 counter/N27
*809 counter/N26
*810 counter/N25
*811 n122
*812 n125
*813 n143
*814 copt_net_527
*815 n145
*816 n146
*817 n147
*818 n148
*819 n149
*820 n150
*821 n151
*822 n152
*823 n153
*824 n154
*825 n155
*826 n156
*827 n157
*828 n158
*829 n159
*830 n160
*831 n161
*832 n162
*833 n163
*834 n164
*835 n165
*836 n166
*837 n167
*838 n168
*839 n169
*840 HFSNET_39
*841 n171
*842 n172
*843 n173
*844 n174
*845 n175
*846 n176
*847 n177
*848 n178
*849 n179
*850 n180
*851 n181
*852 n182
*853 n183
*854 n184
*855 n185
*856 n186
*857 n187
*858 n188
*859 n189
*860 n190
*861 n191
*862 n192
*863 n193
*864 n194
*865 n195
*866 n196
*867 n197
*868 n198
*869 n199
*870 n200
*871 n201
*872 n202
*873 n203
*874 n204
*875 n205
*876 n206
*877 n207
*878 n208
*879 n209
*880 n210
*881 n211
*882 n212
*883 n213
*884 n214
*885 n215
*886 n216
*887 n217
*888 n218
*889 n219
*890 n220
*891 copt_net_26
*892 n222
*893 n223
*894 n224
*895 n225
*896 n226
*897 n227
*898 n228
*899 n229
*900 n230
*901 n231
*902 n232
*903 n233
*904 n234
*905 n235
*906 n236
*907 n237
*908 n238
*909 n239
*910 n240
*911 n241
*912 n242
*913 n243
*914 n244
*915 n245
*916 n246
*917 n247
*918 n248
*919 n249
*920 n250
*921 n251
*922 n252
*923 n253
*924 n254
*925 n255
*926 n256
*927 n257
*928 n258
*929 n259
*930 n260
*931 n261
*932 n262
*933 n263
*934 n264
*935 n265
*936 n266
*937 n267
*938 n268
*939 n269
*940 n270
*941 n271
*942 n272
*943 n273
*944 n274
*945 n275
*946 n276
*947 n277
*948 n278
*949 n279
*950 n280
*951 n281
*952 n282
*953 n283
*954 n284
*955 n285
*956 n286
*957 n287
*958 n288
*959 n289
*960 n290
*961 copt_net_18
*962 n292
*963 n293
*964 n294
*965 n295
*966 ctsbuf_net_21
*967 n297
*968 copt_net_538
*969 n299
*970 n300
*971 n301
*972 n302
*973 HFSNET_8
*974 n304
*975 n305
*976 n306
*977 n307
*978 n308
*979 n309
*980 n310
*981 n311
*982 n312
*983 n313
*984 n314
*985 n315
*986 n316
*987 n317
*988 n318
*989 n319
*990 n320
*991 n321
*992 n322
*993 n323
*994 n324
*995 n325
*996 n326
*997 copt_net_533
*998 n328
*999 n329
*1000 n330
*1001 n331
*1002 n332
*1003 n333
*1004 n334
*1005 n335
*1006 n336
*1007 n337
*1008 n338
*1009 n339
*1010 n341
*1011 n342
*1012 n343
*1013 n344
*1014 n345
*1015 n346
*1016 n347
*1017 n348
*1018 n349
*1019 n350
*1020 cnt_n[15]
*1021 cnt_n[14]
*1022 cnt_n[13]
*1023 cnt_n[12]
*1024 cnt_n[11]
*1025 cnt_n[10]
*1026 cnt_n[9]
*1027 cnt_n[8]
*1028 cnt_n[7]
*1029 cnt_n[6]
*1030 cnt_n[5]
*1031 cnt_n[4]
*1032 cnt_n[3]
*1033 cnt_n[2]
*1034 cnt_n[1]
*1035 cnt_n[0]
*1036 mod_value[15]
*1037 mod_value[14]
*1038 mod_value[13]
*1039 mod_value[12]
*1040 mod_value[11]
*1041 mod_value[10]
*1042 mod_value[9]
*1043 mod_value[8]
*1044 mod_value[7]
*1045 mod_value[6]
*1046 mod_value[5]
*1047 mod_value[4]
*1048 mod_value[3]
*1049 mod_value[2]
*1050 mod_value[1]
*1051 mod_value[0]
*1052 pit_pre_scl[3]
*1053 pit_pre_scl[2]
*1054 pit_pre_scl[1]
*1055 pit_pre_scl[0]
*1056 wishbone/address[2]
*1057 wishbone/address[1]
*1058 wishbone/address[0]
*1059 prescale/cnt_n[14]
*1060 prescale/cnt_n[13]
*1061 prescale/cnt_n[12]
*1062 prescale/cnt_n[11]
*1063 prescale/cnt_n[10]
*1064 prescale/cnt_n[9]
*1065 prescale/cnt_n[8]
*1066 prescale/cnt_n[7]
*1067 prescale/cnt_n[6]
*1068 prescale/cnt_n[5]
*1069 prescale/cnt_n[4]
*1070 prescale/cnt_n[3]
*1071 prescale/cnt_n[2]
*1072 prescale/cnt_n[1]
*1073 prescale/cnt_n[0]
*1074 ctsbuf_net_32
*1075 copt_net_534
*1076 ZBUF_2
*1077 HFSNET_5
*1078 HFSNET_6
*1079 ctsbuf_net_43
*1080 wishbone/clk_gate_addr_latch_reg/cts0
*1081 regs/clk_gate_pit_slave_reg/cts0
*1082 copt_net_535
*1083 copt_net_536
*1084 copt_net_7
*1085 copt_net_8
*1086 copt_net_537
*1087 copt_net_516
*1088 copt_net_11
*1089 copt_net_519
*1090 copt_net_15
*1091 copt_net_16
*1092 copt_net_17
*1093 copt_net_32
*1094 copt_net_539
*1095 copt_net_22
*1096 copt_net_23
*1097 copt_net_529
*1098 copt_net_25
*1099 copt_net_33
*1100 copt_net_518
*1101 copt_net_35
*1102 copt_net_36
*1103 copt_net_37
*1104 copt_net_540
*1105 copt_net_39
*1106 copt_net_40
*1107 copt_net_41
*1108 copt_net_530
*1109 copt_net_43
*1110 copt_net_44
*1111 copt_net_45
*1112 copt_net_46
*1113 copt_net_47
*1114 copt_net_48
*1115 copt_net_526
*1116 copt_net_528
*1117 copt_net_51
*1118 copt_net_52
*1119 copt_net_53
*1120 copt_net_54
*1121 copt_net_55
*1122 copt_net_56
*1123 copt_net_57
*1124 copt_net_520
*1125 copt_net_512
*1126 copt_net_60
*1127 copt_net_61
*1128 copt_net_62
*1129 copt_net_63
*1130 copt_net_64
*1131 copt_net_65
*1132 copt_net_66
*1133 copt_net_67
*1134 copt_net_68
*1135 copt_net_69
*1136 copt_net_70
*1137 copt_net_71
*1138 copt_net_72
*1139 copt_net_73
*1140 copt_net_74
*1141 copt_net_75
*1142 copt_net_76
*1143 ZBUF_0
*1144 copt_net_78
*1145 copt_net_79
*1146 copt_net_80
*1147 ZBUF_1
*1148 copt_net_82
*1149 copt_net_83
*1150 copt_net_84
*1151 copt_net_531
*1152 copt_net_86
*1153 copt_net_87
*1154 copt_net_88
*1155 ZBUF_3
*1156 copt_net_514
*1157 copt_net_515
*1158 copt_net_521
*1159 copt_net_93
*1160 copt_net_94
*1161 copt_net_95
*1162 copt_net_96
*1163 copt_net_97
*1164 copt_net_98
*1165 copt_net_522
*1166 copt_net_523
*1167 copt_net_101
*1168 copt_net_102
*1169 copt_net_103
*1170 copt_net_104
*1171 copt_net_524
*1172 copt_net_532
*1173 copt_net_107
*1174 ZBUF_4
*1175 ZBUF_5
*1176 ZBUF_6
*1177 ZBUF_7
*1178 net_PTECO_HOLD_NET2
*1179 copt_net_113
*1180 copt_net_114
*1181 copt_net_115
*1182 copt_net_116
*1183 copt_net_117
*1184 net_PTECO_HOLD_NET1
*1185 net_PTECO_HOLD_NET2_0
*1186 copt_net_120
*1187 copt_net_121
*1188 net_PTECO_HOLD_NET1_1
*1189 copt_net_123
*1190 copt_net_124
*1191 copt_net_128
*1192 copt_net_129
*1193 copt_net_131
*1194 copt_net_132
*1195 copt_net_133
*1196 copt_net_134
*1197 copt_net_135
*1198 copt_net_136
*1199 copt_net_137
*1200 copt_net_138
*1201 copt_net_139
*1202 copt_net_141
*1203 copt_net_513
*1204 copt_net_143
*1205 copt_net_144
*1206 copt_net_146
*1207 copt_net_147
*1208 copt_net_149
*1209 copt_net_152
*1210 copt_net_153
*1211 copt_net_156
*1212 copt_net_157
*1213 copt_net_158
*1214 copt_net_159
*1215 copt_net_160
*1216 copt_net_161
*1217 copt_net_162
*1218 copt_net_164
*1219 copt_net_165
*1220 copt_net_166
*1221 copt_net_167
*1222 copt_net_169
*1223 copt_net_170
*1224 copt_net_171
*1225 copt_net_172
*1226 copt_net_173
*1227 copt_net_175
*1228 copt_net_176
*1229 copt_net_177
*1230 copt_net_179
*1231 copt_net_181
*1232 copt_net_182
*1233 copt_net_183
*1234 copt_net_184
*1235 copt_net_185
*1236 copt_net_186
*1237 copt_net_187
*1238 copt_net_188
*1239 copt_net_189
*1240 copt_net_190
*1241 copt_net_191
*1242 copt_net_192
*1243 copt_net_193
*1244 copt_net_194
*1245 copt_net_195
*1246 copt_net_196
*1247 copt_net_197
*1248 copt_net_198
*1249 copt_net_199
*1250 copt_net_201
*1251 copt_net_202
*1252 copt_net_203
*1253 copt_net_204
*1254 copt_net_205
*1255 copt_net_206
*1256 copt_net_207
*1257 copt_net_208
*1258 copt_net_209
*1259 copt_net_210
*1260 copt_net_211
*1261 copt_net_212
*1262 copt_net_213
*1263 copt_net_214
*1264 copt_net_215
*1265 copt_net_216
*1266 copt_net_217
*1267 copt_net_218
*1268 copt_net_219
*1269 copt_net_220
*1270 copt_net_221
*1271 copt_net_222
*1272 copt_net_223
*1273 copt_net_224
*1274 copt_net_225
*1275 copt_net_226
*1276 copt_net_227
*1277 copt_net_228
*1278 copt_net_229
*1279 copt_net_230
*1280 copt_net_231
*1281 copt_net_232
*1282 copt_net_233
*1283 copt_net_234
*1284 copt_net_235
*1285 copt_net_236
*1286 copt_net_237
*1287 copt_net_238
*1288 copt_net_239
*1289 copt_net_242
*1290 copt_net_243
*1291 copt_net_245
*1292 copt_net_246
*1293 copt_net_247
*1294 copt_net_248
*1295 copt_net_252
*1296 copt_net_253
*1297 copt_net_254
*1298 copt_net_255
*1299 copt_net_256
*1300 copt_net_257
*1301 copt_net_258
*1302 copt_net_259
*1303 copt_net_260
*1304 copt_net_261
*1305 copt_net_262
*1306 copt_net_263
*1307 copt_net_264
*1308 copt_net_265
*1309 copt_net_266
*1310 copt_net_267
*1311 copt_net_268
*1312 copt_net_269
*1313 copt_net_270
*1314 copt_net_271
*1315 copt_net_272
*1316 copt_net_273
*1317 copt_net_274
*1318 copt_net_275
*1319 copt_net_276
*1320 copt_net_277
*1321 copt_net_278
*1322 copt_net_279
*1323 copt_net_280
*1324 copt_net_281
*1325 copt_net_282
*1326 copt_net_283
*1327 copt_net_284
*1328 copt_net_285
*1329 copt_net_286
*1330 copt_net_287
*1331 copt_net_288
*1332 copt_net_289
*1333 copt_net_290
*1334 copt_net_291
*1335 copt_net_292
*1336 copt_net_293
*1337 copt_net_294
*1338 copt_net_295
*1339 copt_net_296
*1340 copt_net_297
*1341 copt_net_298
*1342 copt_net_299
*1343 copt_net_300
*1344 copt_net_301
*1345 copt_net_302
*1346 copt_net_303
*1347 copt_net_304
*1348 copt_net_305
*1349 copt_net_306
*1350 copt_net_307
*1351 copt_net_308
*1352 copt_net_309
*1353 copt_net_311
*1354 copt_net_312
*1355 copt_net_313
*1356 copt_net_314
*1357 copt_net_315
*1358 copt_net_316
*1359 copt_net_317
*1360 copt_net_319
*1361 copt_net_320
*1362 copt_net_321
*1363 copt_net_322
*1364 copt_net_323
*1365 copt_net_324
*1366 copt_net_325
*1367 copt_net_327
*1368 copt_net_329
*1369 copt_net_330
*1370 copt_net_331
*1371 copt_net_332
*1372 copt_net_333
*1373 copt_net_334
*1374 copt_net_335
*1375 copt_net_337
*1376 copt_net_338
*1377 copt_net_339
*1378 copt_net_340
*1379 copt_net_341
*1380 copt_net_342
*1381 copt_net_343
*1382 copt_net_344
*1383 copt_net_345
*1384 copt_net_347
*1385 copt_net_348
*1386 copt_net_352
*1387 copt_net_353
*1388 copt_net_354
*1389 copt_net_355
*1390 copt_net_357
*1391 copt_net_362
*1392 copt_net_364
*1393 copt_net_365
*1394 copt_net_366
*1395 copt_net_367
*1396 copt_net_368
*1397 copt_net_369
*1398 copt_net_370
*1399 copt_net_371
*1400 copt_net_372
*1401 copt_net_373
*1402 copt_net_374
*1403 copt_net_375
*1404 copt_net_376
*1405 copt_net_377
*1406 copt_net_378
*1407 copt_net_379
*1408 copt_net_380
*1409 copt_net_381
*1410 copt_net_382
*1411 copt_net_383
*1412 copt_net_384
*1413 copt_net_385
*1414 copt_net_386
*1415 copt_net_387
*1416 copt_net_388
*1417 copt_net_389
*1418 copt_net_390
*1419 copt_net_391
*1420 copt_net_392
*1421 copt_net_393
*1422 copt_net_394
*1423 copt_net_395
*1424 copt_net_396
*1425 copt_net_397
*1426 copt_net_400
*1427 copt_net_402
*1428 copt_net_403
*1429 copt_net_404
*1430 copt_net_405
*1431 copt_net_406
*1432 copt_net_407
*1433 copt_net_408
*1434 copt_net_409
*1435 copt_net_410
*1436 copt_net_411
*1437 copt_net_412
*1438 copt_net_416
*1439 copt_net_418
*1440 copt_net_420
*1441 copt_net_421
*1442 copt_net_425
*1443 copt_net_426
*1444 copt_net_427
*1445 copt_net_428
*1446 copt_net_429
*1447 copt_net_431
*1448 copt_net_432
*1449 copt_net_433
*1450 copt_net_434
*1451 copt_net_441
*1452 copt_net_442
*1453 copt_net_444
*1454 copt_net_445
*1455 copt_net_447
*1456 copt_net_448
*1457 copt_net_449
*1458 copt_net_450
*1459 copt_net_451
*1460 copt_net_452
*1461 copt_net_453
*1462 copt_net_458
*1463 copt_net_459
*1464 copt_net_460
*1465 copt_net_461
*1466 copt_net_463
*1467 copt_net_471
*1468 copt_net_473
*1469 copt_net_474
*1470 copt_net_475
*1471 copt_net_476
*1472 copt_net_477
*1473 copt_net_479
*1474 copt_net_480
*1475 copt_net_481
*1476 copt_net_484
*1477 copt_net_485
*1478 copt_net_486
*1479 copt_net_487
*1480 copt_net_488
*1481 copt_net_493
*1482 copt_net_494
*1483 copt_net_495
*1484 copt_net_498
*1485 copt_net_499
*1486 copt_net_500
*1487 copt_net_501
*1488 copt_net_502
*1489 copt_net_503
*1490 copt_net_504
*1491 copt_net_505
*1492 copt_net_506
*1493 copt_net_508
*1494 copt_net_509
*1495 copt_net_510
*1496 copt_net_511

*PORTS
*1 O *C 30.248 0.143
*2 O *C 53.352 0.143
*3 O *C 48.792 0.143
*4 O *C 44.232 0.143
*5 O *C 39.672 0.143
*6 O *C 35.112 0.143
*7 O *C 30.552 0.143
*8 O *C 25.992 0.143
*9 O *C 21.432 0.143
*10 O *C 16.872 0.143
*11 O *C 12.312 0.143
*12 O *C 7.752 0.143
*13 O *C 3.192 0.143
*14 O *C 60.809 56.848
*15 O *C 60.809 51.984
*16 O *C 60.809 46.816
*17 O *C 60.809 41.952
*18 I *C 60.809 37.088
*19 I *C 60.809 32.224
*20 I *C 60.809 27.056
*21 I *C 60.809 22.192
*22 I *C 60.809 17.328
*23 I *C 60.809 12.464
*24 I *C 60.809 7.296
*25 I *C 60.809 2.432
*26 I *C 57.760 62.177
*27 I *C 52.896 62.177
*28 I *C 47.880 62.177
*29 I *C 42.864 62.177
*30 I *C 38.000 62.177
*31 I *C 32.984 62.177
*32 I *C 28.120 62.177
*33 I *C 23.104 62.177
*34 I *C 18.240 62.177
*35 I *C 13.224 62.177
*36 I *C 8.208 62.177
*37 I *C 3.344 62.177
*38 I *C 0.143 56.848
*39 I *C 0.143 51.984
*40 I *C 0.143 46.816
*41 I *C 0.143 41.952
*42 I *C 0.143 37.088
*43 I *C 0.143 32.224
*44 I *C 0.143 27.056
*45 O *C 0.143 22.192
*46 O *C 0.143 17.328
*47 O *C 0.143 12.464
*48 O *C 0.143 7.296
*49 I *C 0.143 2.432
*50 I *C 30.476 31.160
*51 I *C 30.476 31.160

*D_NET *19 5.793039 //LENGTH 71.558 DR

*CONN
*P *19 I *L 0.000 *C 60.694 32.224
*I *349:A I *L 0.467 *C 50.312 48.640
*I *190:A3 I *L 0.537 *C 17.587 48.087
*I *140:A3 I *L 0.537 *C 11.355 44.741
*N *19:4 *C 11.385 44.763
*N *19:5 *C 11.400 44.782
*N *19:6 *C 11.400 48.019
*N *19:7 *C 11.414 48.032
*N *19:8 *C 17.577 48.087
*N *19:9 *C 17.597 48.137
*N *19:10 *C 17.632 48.184
*N *19:11 *C 17.633 48.184
*N *19:12 *C 17.784 48.184
*N *19:13 *C 17.784 48.046
*N *19:14 *C 17.784 48.032
*N *19:15 *C 40.584 48.032
*N *19:16 *C 40.584 48.336
*N *19:17 *C 44.992 48.336
*N *19:18 *C 44.992 48.032
*N *19:19 *C 50.312 48.627
*N *19:20 *C 50.312 48.046
*N *19:21 *C 50.312 48.032
*N *19:22 *C 50.907 48.032
*N *19:23 *C 50.920 48.019
*N *19:24 *C 50.920 33.440
*N *19:25 *C 50.768 33.440
*N *19:26 *C 50.768 32.238
*N *19:27 *C 50.782 32.224

*CAP
0 *19 0.3278861
1 *349:A 0.001
2 *190:A3 0.004987139
3 *140:A3 0.01112842
4 *19:4 0.009534288
5 *19:5 0.1452556
6 *19:6 0.1450707
7 *19:7 0.2852105
8 *19:8 0.004933693
9 *19:9 0.01010157
10 *19:10 0.01444787
11 *19:11 0.005786183
12 *19:12 0.0171376
13 *19:13 0.007978254
14 *19:14 1.180254
15 *19:15 0.9056692
16 *19:16 0.2085367
17 *19:17 0.2093835
18 *19:18 0.2351466
19 *19:19 0.03312809
20 *19:20 0.03427163
21 *19:21 0.2485548
22 *19:22 0.02488019
23 *19:23 0.624472
24 *19:24 0.6336783
25 *19:25 0.07385231
26 *19:26 0.064646
27 *19:27 0.3261071

*RES
0 *19 *19:27 17.70089
1 *190:A3 *19:8 0.01
2 *19:23 *19:22 0.5
3 *19:22 *19:21 1.061607
4 *19:26 *19:25 2.147322
5 *19:27 *19:26 0.5
6 *19:4 *140:A3 0.06666668
7 *19:5 *19:4 1
8 *19:6 *19:5 5.780358
9 *19:7 *19:6 0.5
10 *19:13 *19:12 0.3285714
11 *19:14 *19:13 0.5
12 *19:14 *19:7 11.37589
13 *19:10 *19:9 0.05875
14 *19:11 *19:10 1
15 *19:20 *19:19 1.11875
16 *19:21 *19:20 0.5
17 *19:21 *19:18 9.500001
18 *19:19 *349:A 1
19 *19:9 *190:A3 0.03125
20 *19:12 *19:11 0.2696429
21 *19:25 *19:24 0.2714286
22 *19:24 *19:23 26.03304
23 *19:15 *19:14 40.71429
24 *19:16 *19:15 0.5428572
25 *19:17 *19:16 7.871429
26 *19:18 *19:17 0.5428572

*END

*D_NET *20 0.4416567 //LENGTH 7.943 DR

*CONN
*P *20 I *L 0.000 *C 60.694 27.056
*I *185:A I *L 0.319 *C 53.048 27.056
*N *20:2 *C 53.048 26.874
*N *20:3 *C 53.048 27.044
*N *20:4 *C 53.062 27.056

*CAP
0 *20 0.2086032
1 *185:A 0.001
2 *20:2 0.01496544
3 *20:3 0.01026384
4 *20:4 0.2068242

*RES
0 *20 *20:4 13.62947
1 *20:3 *185:A 1
2 *20:3 *20:2 0.2825
3 *20:4 *20:3 0.5

*END

*D_NET *770 11.94479 //LENGTH 151.315 DR

*CONN